Version 4
SHEET 1 880 700
WIRE -720 -400 -848 -400
WIRE -928 -320 -928 -400
WIRE -928 -320 -976 -320
WIRE -640 -320 -640 -400
WIRE -464 -320 -640 -320
WIRE -928 -272 -928 -320
WIRE -784 -272 -848 -272
WIRE -720 -272 -784 -272
WIRE -640 -272 -640 -320
WIRE -784 -256 -784 -272
WIRE -464 -208 -464 -240
WIRE -976 -128 -976 -320
WIRE -464 -128 -976 -128
FLAG -784 -256 0
DATAFLAG -928 -288 ""
SYMBOL voltage -464 -224 R0
WINDOW 123 0 0 Left 0
WINDOW 39 24 124 Left 2
SYMATTR InstName V0
SYMATTR Value 1
SYMBOL res -832 -288 R90
WINDOW 0 0 56 VBottom 2
WINDOW 3 32 56 VTop 2
SYMATTR InstName Rw
SYMATTR Value 68
SYMBOL res -832 -416 R90
WINDOW 0 0 56 VBottom 2
WINDOW 3 32 56 VTop 2
SYMATTR InstName R2
SYMATTR Value 75.56
SYMBOL res -624 -416 R90
WINDOW 0 0 56 VBottom 2
WINDOW 3 32 56 VTop 2
SYMATTR InstName R1
SYMATTR Value 100
SYMBOL res -448 -224 R180
WINDOW 0 36 76 Left 2
WINDOW 3 36 40 Left 2
SYMATTR InstName R0
SYMATTR Value 1
SYMBOL res -624 -288 R90
WINDOW 0 0 56 VBottom 2
WINDOW 3 32 56 VTop 2
SYMATTR InstName R3
SYMATTR Value 90
TEXT -416 -168 Left 2 !.op
TEXT -1016 -544 Left 1 ;(1) Change the values of the resistors\n(2) Run the simulation\n(3) Close the window with the result numerical values\n \nBlue label ??? will show the voltage in the node after Rw which is equal to Vw / V0
